Version 4
SHEET 1 2376 916
WIRE 336 96 240 96
WIRE 640 112 640 0
WIRE 688 112 640 112
WIRE 624 144 560 144
WIRE 688 144 624 144
WIRE 896 144 864 144
WIRE 240 160 240 96
WIRE 624 176 560 176
WIRE 688 176 624 176
WIRE 1232 192 1184 192
WIRE 1344 192 1312 192
WIRE 624 208 624 176
WIRE 896 224 896 144
WIRE 336 352 336 96
WIRE 416 352 336 352
WIRE 896 352 896 224
WIRE 928 352 896 352
WIRE 208 384 160 384
WIRE 320 384 208 384
WIRE 416 384 320 384
WIRE 720 384 624 384
WIRE 928 384 720 384
WIRE 1232 384 1088 384
WIRE 1376 384 1232 384
WIRE 1712 400 1616 400
WIRE 1808 400 1712 400
WIRE 1936 400 1888 400
WIRE 2080 400 2016 400
WIRE 208 416 160 416
WIRE 288 416 208 416
WIRE 416 416 288 416
WIRE 784 416 624 416
WIRE 928 416 784 416
WIRE 1376 416 1280 416
WIRE 1712 432 1616 432
WIRE 1808 432 1712 432
WIRE 208 448 160 448
WIRE 256 448 208 448
WIRE 416 448 256 448
WIRE 1376 448 1312 448
WIRE 1712 464 1616 464
WIRE 1376 480 1344 480
WIRE 784 512 784 416
WIRE 1712 512 1712 464
WIRE 1808 512 1808 432
WIRE 2080 528 2080 400
WIRE 1280 544 1280 416
WIRE 1312 544 1312 448
WIRE 1344 544 1344 480
WIRE 320 608 320 384
WIRE 448 608 320 608
WIRE 288 640 288 416
WIRE 448 640 288 640
WIRE 1712 656 1712 592
WIRE 1808 656 1808 592
WIRE 256 672 256 448
WIRE 448 672 256 672
WIRE 448 704 320 704
WIRE 320 768 320 704
WIRE 320 896 320 848
FLAG 2080 528 0
FLAG 1712 400 Vout_1
FLAG 784 512 0
FLAG 1808 656 0
FLAG 1712 656 0
FLAG 1184 192 0
FLAG 1344 192 Vsupply
FLAG 240 160 0
FLAG 624 208 0
FLAG 1312 544 Vsupply
FLAG 1344 544 Vsupply
FLAG 1280 544 0
FLAG 640 0 Vsupply
FLAG 320 896 0
FLAG 208 384 Va
FLAG 208 416 Vb
FLAG 208 448 Vc
FLAG 720 384 Vrect
FLAG 1232 384 Vdcdc
FLAG 1712 432 Vout_2
FLAG 1712 464 Vout_3
FLAG 624 144 Vsqr
FLAG 896 224 Vpwm
SYMBOL voltage 1920 400 R270
WINDOW 0 32 56 VTop 2
WINDOW 3 -32 56 Invisible 2
WINDOW 123 0 0 Left 0
SYMATTR InstName V1
SYMATTR Value 12
SYMATTR SpiceLine Rser=0
SYMBOL res 1792 416 R270
WINDOW 0 32 56 VTop 2
WINDOW 3 0 56 VBottom 2
SYMATTR InstName Battery_Req
SYMATTR Value 0.02
SYMBOL powerswitch 1488 432 R0
SYMATTR InstName X5
SYMBOL res 1792 496 R0
SYMATTR InstName R2
SYMATTR Value 5
SYMBOL res 1696 496 R0
SYMATTR InstName R3
SYMATTR Value 1
SYMBOL voltage 1328 192 R90
WINDOW 123 0 0 Left 0
WINDOW 39 0 0 Left 0
SYMATTR InstName V4
SYMATTR Value 10
SYMBOL killswitch 512 656 R0
SYMATTR InstName X7
SYMBOL swgen 528 144 R0
WINDOW 39 -2 66 Center 0
SYMATTR SpiceLine duty=40 Freq=300k Von=5
SYMATTR InstName X1
SYMBOL 3phgen 80 416 R0
SYMATTR InstName X6
SYMATTR SpiceLine turbVolt=20 turbR=0.1 turbFreq=1000
SYMBOL brakerectifier 512 400 R0
SYMATTR InstName X8
SYMBOL sepic 1008 384 R0
SYMATTR InstName X9
SYMATTR SpiceLine L1=2.333mH L2=2.333mH C1=10uF Ci=100uF Co=1000uF Cd=40uF Rd=2.44
SYMBOL mosdrive 768 144 R0
SYMATTR InstName X2
SYMBOL voltage 320 752 R0
WINDOW 3 24 96 Invisible 2
WINDOW 123 0 0 Left 0
WINDOW 39 0 0 Left 0
SYMATTR Value PWL(0 0 24ms 0 25ms 10)
SYMATTR InstName V2
TEXT 1184 144 Left 2 !.tran 50ms startup
TEXT 120 800 Left 2 ;brake at 25ms
