Version 4
SHEET 1 1452 724
WIRE 480 -176 480 -224
WIRE 896 -176 480 -176
WIRE 1312 -176 896 -176
WIRE 480 -144 480 -176
WIRE 896 -144 896 -176
WIRE 1312 -144 1312 -176
WIRE 336 -64 304 -64
WIRE 432 -64 336 -64
WIRE 752 -64 720 -64
WIRE 848 -64 752 -64
WIRE 1168 -64 1136 -64
WIRE 1264 -64 1168 -64
WIRE 336 0 336 -64
WIRE 368 0 336 0
WIRE 480 0 480 -48
WIRE 480 0 448 0
WIRE 752 0 752 -64
WIRE 784 0 752 0
WIRE 896 0 896 -48
WIRE 896 0 864 0
WIRE 1168 0 1168 -64
WIRE 1200 0 1168 0
WIRE 1312 0 1312 -48
WIRE 1312 0 1280 0
WIRE 480 48 480 0
WIRE 896 48 896 0
WIRE 1312 48 1312 0
FLAG 304 -64 S1
IOPIN 304 -64 In
FLAG 480 -224 PowerIn
IOPIN 480 -224 In
FLAG 480 48 Power1
IOPIN 480 48 Out
FLAG 720 -64 S2
IOPIN 720 -64 In
FLAG 896 48 Power2
IOPIN 896 48 Out
FLAG 1136 -64 S3
IOPIN 1136 -64 In
FLAG 1312 48 Power3
IOPIN 1312 48 Out
SYMBOL nmos 432 -144 R0
SYMATTR InstName M1
SYMATTR Value Si7336ADP
SYMBOL res 464 -16 R90
WINDOW 0 0 56 VBottom 2
WINDOW 3 32 56 VTop 2
SYMATTR InstName R1
SYMATTR Value 10k
SYMBOL nmos 848 -144 R0
SYMATTR InstName M2
SYMATTR Value Si7336ADP
SYMBOL res 880 -16 R90
WINDOW 0 0 56 VBottom 2
WINDOW 3 32 56 VTop 2
SYMATTR InstName R2
SYMATTR Value 10k
SYMBOL nmos 1264 -144 R0
SYMATTR InstName M3
SYMATTR Value Si7336ADP
SYMBOL res 1296 -16 R90
WINDOW 0 0 56 VBottom 2
WINDOW 3 32 56 VTop 2
SYMATTR InstName R3
SYMATTR Value 10k
