Version 4
SHEET 1 976 680
WIRE -288 0 -448 0
WIRE 160 0 160 -48
WIRE -784 16 -784 -32
WIRE -688 16 -688 -32
WIRE -576 32 -576 -32
WIRE 352 48 288 48
WIRE -448 128 -448 0
WIRE -416 128 -448 128
WIRE -288 144 -288 0
WIRE -288 144 -352 144
WIRE -80 144 -288 144
WIRE 304 144 288 144
WIRE 448 144 368 144
WIRE -576 160 -576 112
WIRE -416 160 -576 160
WIRE -576 208 -576 160
WIRE -576 352 -576 288
WIRE 160 352 160 288
FLAG -576 352 Vss
FLAG 160 352 Vss
FLAG 352 48 Vdd
FLAG 160 -48 Vss
FLAG -384 176 Vss
FLAG -384 112 Vdd
FLAG -576 -32 Vmeas
IOPIN -576 -32 In
FLAG -688 -32 Vref
IOPIN -688 -32 In
FLAG -688 16 Vss
FLAG -784 -32 V+
IOPIN -784 -32 In
FLAG -784 16 Vdd
FLAG 448 144 Vss
SYMBOL OpAmps\\OP07 -384 80 R0
SYMATTR InstName U2
SYMBOL res -592 16 R0
SYMATTR InstName R1
SYMATTR Value 90k
SYMBOL res -592 192 R0
SYMATTR InstName R2
SYMATTR Value 10k
SYMBOL ADC\\AD4000 192 144 R0
SYMATTR InstName U1
SYMBOL cap 368 128 R90
WINDOW 0 0 32 VBottom 2
WINDOW 3 32 32 VTop 2
SYMATTR InstName C2
SYMATTR Value 10p
TEXT 16 -192 Left 2 ;note that this isnt necessarily\nthe actual model we will use,\njust a placeholder chip
