Version 4
SHEET 1 900 680
WIRE 416 144 128 144
WIRE 416 176 288 176
WIRE 656 176 576 176
WIRE 736 176 656 176
WIRE 880 176 816 176
WIRE 416 208 304 208
WIRE 304 256 304 208
WIRE 704 256 304 256
WIRE 880 256 880 176
WIRE 880 256 704 256
WIRE 288 272 288 176
WIRE 656 272 288 272
WIRE 656 304 656 272
WIRE 880 304 880 256
WIRE 384 352 384 320
WIRE 416 352 384 352
WIRE 416 384 160 384
WIRE 656 384 656 304
WIRE 656 384 624 384
WIRE 416 416 160 416
WIRE 704 416 704 256
WIRE 704 416 624 416
WIRE 416 448 160 448
FLAG 880 304 0
FLAG 656 304 VDC+
FLAG 656 176 Vout
FLAG 304 320 0
SYMBOL swGen 96 144 R0
SYMATTR InstName X1
SYMATTR SpiceLine duty=40 Freq=300k Von=5
SYMBOL sepicR2 496 176 R0
SYMATTR InstName X2
SYMATTR SpiceLine L1=190uH L2=48uH C1=10uF Ci=100uF Co=1000uF Cd=40uF Rd=2.44
SYMBOL shrektifier 512 400 R0
SYMATTR InstName X3
SYMBOL turbine 80 416 R0
SYMATTR InstName X4
SYMATTR SpiceLine turbVolt=20 turbR=0.1 turbFreq=1000
SYMBOL voltage 720 176 R270
WINDOW 0 32 56 VTop 2
WINDOW 3 -32 56 Invisible 2
SYMATTR InstName V1
SYMATTR Value 12
SYMATTR SpiceLine Rser=0.02
SYMBOL voltage 400 320 R90
WINDOW 0 -7 11 VBottom 2
WINDOW 3 28 7 VBottom 2
WINDOW 123 0 0 Left 0
WINDOW 39 0 0 Left 0
SYMATTR InstName V2
SYMATTR Value 0
TEXT 264 640 Left 2 !.tran 100ms
