Version 4
SHEET 1 2376 820
WIRE 1232 192 1184 192
WIRE 1344 192 1312 192
WIRE 896 288 800 288
WIRE 848 320 800 320
WIRE 336 352 336 256
WIRE 416 352 336 352
WIRE 848 352 848 320
WIRE 896 352 896 288
WIRE 928 352 896 352
WIRE 320 384 160 384
WIRE 416 384 320 384
WIRE 928 384 624 384
WIRE 1168 384 1088 384
WIRE 1376 384 1168 384
WIRE 1808 400 1616 400
WIRE 1936 400 1888 400
WIRE 2080 400 2016 400
WIRE 288 416 160 416
WIRE 416 416 288 416
WIRE 784 416 624 416
WIRE 928 416 784 416
WIRE 1376 416 1280 416
WIRE 1728 432 1616 432
WIRE 256 448 160 448
WIRE 416 448 256 448
WIRE 1376 448 1312 448
WIRE 1648 464 1616 464
WIRE 1376 480 1344 480
WIRE 784 512 784 416
WIRE 1648 512 1648 464
WIRE 1728 512 1728 432
WIRE 2080 528 2080 400
WIRE 1280 544 1280 416
WIRE 1312 544 1312 448
WIRE 1344 544 1344 480
WIRE 320 608 320 384
WIRE 448 608 320 608
WIRE 288 640 288 416
WIRE 448 640 288 640
WIRE 1648 656 1648 592
WIRE 1728 656 1728 592
WIRE 256 672 256 448
WIRE 448 672 256 672
WIRE 448 704 320 704
WIRE 320 720 320 704
FLAG 2080 528 0
FLAG 1168 384 Vout
FLAG 256 256 0
FLAG 784 512 0
FLAG 1728 656 0
FLAG 1648 656 0
FLAG 1184 192 0
FLAG 1344 192 Vsupply
FLAG 1312 544 0
FLAG 1344 544 0
FLAG 320 800 0
FLAG 1280 544 Vsupply
FLAG 848 352 0
SYMBOL sepicR2 1008 384 R0
SYMATTR InstName X2
SYMATTR SpiceLine L1=190uH L2=48uH C1=10uF Ci=100uF Co=1000uF Cd=40uF Rd=2.44
SYMBOL shrektifier 512 400 R0
SYMATTR InstName X3
SYMBOL turbine 80 416 R0
SYMATTR InstName X4
SYMATTR SpiceLine turbVolt=20 turbR=0.1 turbFreq=1000
SYMBOL voltage 1920 400 R270
WINDOW 0 32 56 VTop 2
WINDOW 3 -32 56 Invisible 2
WINDOW 123 0 0 Left 0
SYMATTR InstName V1
SYMATTR Value 12
SYMATTR SpiceLine Rser=0
SYMBOL voltage 352 256 R90
WINDOW 0 -6 -11 VBottom 2
WINDOW 3 28 -16 VBottom 2
WINDOW 123 0 0 Left 0
WINDOW 39 0 0 Left 0
SYMATTR InstName V2
SYMATTR Value 0
SYMBOL res 1904 384 R90
WINDOW 0 0 56 VBottom 2
WINDOW 3 32 56 VTop 2
SYMATTR InstName R1
SYMATTR Value 0.02
SYMBOL powerswitch 1488 432 R0
SYMATTR InstName X5
SYMBOL res 1712 496 R0
SYMATTR InstName R2
SYMATTR Value 5
SYMBOL res 1632 496 R0
SYMATTR InstName R3
SYMATTR Value 1
SYMBOL voltage 1328 192 R90
WINDOW 123 0 0 Left 0
WINDOW 39 0 0 Left 0
SYMATTR InstName V4
SYMATTR Value 10
SYMBOL killswitch 512 656 R0
SYMATTR InstName X7
SYMBOL voltage 320 704 R0
WINDOW 0 -6 -11 VBottom 2
WINDOW 3 28 -16 VBottom 2
WINDOW 123 0 0 Left 0
WINDOW 39 0 0 Left 0
SYMATTR InstName V3
SYMATTR Value 0
SYMBOL swgen 768 288 R0
WINDOW 39 -2 66 Center 0
SYMATTR InstName X1
SYMATTR SpiceLine duty=40 Freq=300k Von=5
TEXT 32 64 Left 2 !.tran 100ms startup
