Version 4
SHEET 1 2376 820
WIRE 896 288 800 288
WIRE 848 320 800 320
WIRE 848 352 848 320
WIRE 896 352 896 288
WIRE 928 352 896 352
WIRE 784 384 544 384
WIRE 928 384 784 384
WIRE 1168 384 1088 384
WIRE 1504 384 1168 384
WIRE 928 416 784 416
WIRE 544 432 544 384
WIRE 1504 480 1504 384
WIRE 784 512 784 416
FLAG 784 512 0
FLAG 848 352 0
FLAG 784 384 DCDCin
FLAG 1168 384 DCDCout
FLAG 544 512 0
FLAG 1504 560 0
SYMBOL sepicR2 1008 384 R0
SYMATTR InstName X2
SYMATTR SpiceLine L1=2.333mH L2=2.333mH C1=10uF Ci=100uF Co=1000uF Cd=40uF Rd=2.44
SYMBOL swgen 768 288 R0
WINDOW 39 -2 66 Center 0
SYMATTR SpiceLine duty=40 Freq=300k Von=5
SYMATTR InstName X1
SYMBOL voltage 544 416 R0
WINDOW 123 0 0 Left 0
WINDOW 39 0 0 Left 0
SYMATTR InstName V1
SYMATTR Value 40
SYMBOL res 1488 464 R0
SYMATTR InstName R1
SYMATTR Value 5
TEXT 1184 144 Left 2 !.tran 100ms startup
