Version 4
SHEET 1 1704 2112
WIRE 240 -64 224 -64
WIRE 352 -64 304 -64
WIRE 448 -64 432 -64
WIRE -160 64 -368 64
WIRE -32 64 -160 64
WIRE 144 64 48 64
WIRE 224 64 224 -64
WIRE 224 64 144 64
WIRE 288 64 224 64
WIRE 448 64 448 -64
WIRE 448 64 416 64
WIRE 512 64 448 64
WIRE 544 64 512 64
WIRE 704 64 608 64
WIRE 752 64 704 64
WIRE 816 64 752 64
WIRE 1008 64 816 64
WIRE 288 112 288 64
WIRE 416 112 416 64
WIRE 224 144 224 64
WIRE -368 160 -368 64
WIRE 448 160 448 64
WIRE 704 160 704 64
WIRE 752 160 752 64
WIRE 816 160 816 64
WIRE 1008 160 1008 64
WIRE -160 176 -160 64
WIRE 128 224 48 224
WIRE 176 224 128 224
WIRE 80 256 48 256
WIRE 128 256 128 224
WIRE -368 352 -368 240
WIRE -160 352 -160 240
WIRE -160 352 -368 352
WIRE 80 352 80 256
WIRE 80 352 -160 352
WIRE 128 352 128 336
WIRE 128 352 80 352
WIRE 224 352 224 240
WIRE 224 352 128 352
WIRE 448 352 448 240
WIRE 448 352 224 352
WIRE 704 352 704 224
WIRE 704 352 448 352
WIRE 752 352 752 224
WIRE 752 352 704 352
WIRE 816 352 816 224
WIRE 816 352 752 352
FLAG -368 352 0
FLAG 1008 320 0
FLAG -160 64 a
FLAG 144 64 b
FLAG 512 64 c
FLAG 704 64 d
SYMBOL cap -176 176 R0
SYMATTR InstName Ci
SYMATTR Value {Ci}
SYMBOL ind2 432 144 R0
SYMATTR InstName L2
SYMATTR Value {L2}
SYMATTR Type ind
SYMBOL cap 688 160 R0
SYMATTR InstName Co
SYMATTR Value 150µ
SYMATTR SpiceLine Rser=32m
SYMBOL diode 544 80 R270
WINDOW 0 32 32 VTop 2
WINDOW 3 0 32 VBottom 2
SYMATTR InstName D1
SYMATTR Value SBRD10200
SYMBOL ind2 64 48 R90
WINDOW 0 4 56 VBottom 2
WINDOW 3 32 56 VTop 2
SYMATTR InstName L1
SYMATTR Value {L1}
SYMATTR Type ind
SYMBOL cap 352 48 R90
WINDOW 0 0 32 VBottom 2
WINDOW 3 32 32 VTop 2
SYMATTR InstName C1
SYMATTR Value {C1}
SYMBOL cap 304 -80 R90
WINDOW 0 0 32 VBottom 2
WINDOW 3 32 32 VTop 2
SYMATTR InstName Cd
SYMATTR Value {Cd}
SYMBOL res 448 -80 R90
WINDOW 0 0 56 VBottom 2
WINDOW 3 32 56 VTop 2
SYMATTR InstName Rd
SYMATTR Value {Rd}
SYMBOL res 112 240 R0
SYMATTR InstName R1
SYMATTR Value 1Mega
SYMBOL voltage -368 144 R0
WINDOW 123 0 0 Left 0
WINDOW 39 0 0 Left 0
SYMATTR InstName V1
SYMATTR Value 60
SYMBOL swgen 16 224 R0
SYMATTR InstName X1
SYMATTR SpiceLine duty=30 Freq=300k Von=5
SYMBOL nmos 176 144 R0
SYMATTR InstName M1
SYMATTR Value Si7336ADP
SYMATTR Prefix ""
SYMBOL res 992 144 R0
SYMATTR InstName R2
SYMATTR Value 5
SYMBOL voltage 1008 224 R0
WINDOW 123 0 0 Left 0
WINDOW 39 0 0 Left 0
SYMATTR InstName V2
SYMATTR Value 12
SYMBOL cap 800 160 R0
SYMATTR InstName Co1
SYMATTR Value 150µ
SYMATTR SpiceLine Rser=32m
SYMBOL cap 736 160 R0
SYMATTR InstName Co2
SYMATTR Value 150µ
SYMATTR SpiceLine Rser=32m
SYMBOL cap 352 96 R90
WINDOW 0 0 32 VBottom 2
WINDOW 3 32 32 VTop 2
SYMATTR InstName C2
SYMATTR Value {C1}
SYMBOL cap 416 48 R90
WINDOW 0 0 32 VBottom 2
WINDOW 3 32 32 VTop 2
SYMATTR InstName C3
SYMATTR Value {C1}
SYMBOL cap 416 96 R90
WINDOW 0 0 32 VBottom 2
WINDOW 3 32 32 VTop 2
SYMATTR InstName C4
SYMATTR Value {C1}
TEXT 80 448 Left 2 !.param L1=2.333mH L2=2.333mH C1=10uF Ci=100uF Co=100uF Cd=40uF Rd=2.44
TEXT -744 72 Left 2 !.tran 50ms startup
TEXT 88 504 Left 2 !K1 L1 L2 0.98
TEXT 96 584 Left 2 !.model SBRD10200 D(Ron=1m Roff=1Meg Vfwd=0.4 Vrev=200)
