Version 4
SHEET 1 1472 724
WIRE 480 -272 480 -416
WIRE 896 -272 480 -272
WIRE 1312 -272 896 -272
WIRE 480 -128 480 -272
WIRE 896 -128 896 -272
WIRE 1312 -128 1312 -272
WIRE 432 -64 304 -64
WIRE 848 -64 720 -64
WIRE 1264 -64 1136 -64
WIRE 480 48 480 -64
WIRE 896 48 896 -64
WIRE 1312 48 1312 -64
FLAG 304 -64 S1
IOPIN 304 -64 In
FLAG 480 -416 PowerIn
IOPIN 480 -416 In
FLAG 480 48 Power1
IOPIN 480 48 Out
FLAG 720 -64 S2
IOPIN 720 -64 In
FLAG 896 48 Power2
IOPIN 896 48 Out
FLAG 1136 -64 S3
IOPIN 1136 -64 In
FLAG 1312 48 Power3
IOPIN 1312 48 Out
SYMBOL Misc\\SCR 464 -128 R0
SYMATTR InstName U1
SYMATTR Value MCR100-003
SYMBOL Misc\\SCR 880 -128 R0
SYMATTR InstName U2
SYMATTR Value MCR100-003
SYMBOL Misc\\SCR 1296 -128 R0
SYMATTR InstName U3
SYMATTR Value MCR100-003
TEXT 592 -312 Left 2 !.lib MCR100_003.lib
