Version 4
SHEET 1 1704 2092
WIRE 240 -64 224 -64
WIRE 352 -64 304 -64
WIRE 448 -64 432 -64
WIRE -160 64 -368 64
WIRE -32 64 -160 64
WIRE 224 64 224 -64
WIRE 224 64 48 64
WIRE 288 64 224 64
WIRE 448 64 448 -64
WIRE 448 64 352 64
WIRE 544 64 448 64
WIRE 704 64 608 64
WIRE 960 64 704 64
WIRE 224 144 224 64
WIRE 448 160 448 64
WIRE 704 160 704 64
WIRE -160 176 -160 64
WIRE 128 224 112 224
WIRE 176 224 128 224
WIRE 128 256 128 224
WIRE -160 352 -160 240
WIRE -160 352 -368 352
WIRE 128 352 128 336
WIRE 128 352 -160 352
WIRE 224 352 224 240
WIRE 224 352 128 352
WIRE 448 352 448 240
WIRE 448 352 224 352
WIRE 704 352 704 224
WIRE 704 352 448 352
FLAG -368 64 Vin+
IOPIN -368 64 In
FLAG 112 224 PWM
IOPIN 112 224 In
FLAG 960 64 Vout
IOPIN 960 64 Out
FLAG -368 352 Vin-
IOPIN -368 352 In
SYMBOL cap -176 176 R0
SYMATTR InstName Ci
SYMATTR Value {Ci}
SYMBOL ind2 432 144 R0
SYMATTR InstName L2
SYMATTR Value {L2}
SYMATTR Type ind
SYMBOL cap 688 160 R0
SYMATTR InstName Co
SYMATTR Value {Co}
SYMBOL diode 544 80 R270
WINDOW 0 32 32 VTop 2
WINDOW 3 0 32 VBottom 2
SYMATTR InstName D1
SYMBOL ind2 64 48 R90
WINDOW 0 4 56 VBottom 2
WINDOW 3 32 56 VTop 2
SYMATTR InstName L1
SYMATTR Value {L1}
SYMATTR Type ind
SYMBOL cap 352 48 R90
WINDOW 0 0 32 VBottom 2
WINDOW 3 32 32 VTop 2
SYMATTR InstName C1
SYMATTR Value {C1}
SYMBOL cap 304 -80 R90
WINDOW 0 0 32 VBottom 2
WINDOW 3 32 32 VTop 2
SYMATTR InstName Cd
SYMATTR Value {Cd}
SYMBOL res 448 -80 R90
WINDOW 0 0 56 VBottom 2
WINDOW 3 32 56 VTop 2
SYMATTR InstName Rd
SYMATTR Value {Rd}
SYMBOL res 112 240 R0
SYMATTR InstName R1
SYMATTR Value 1Mega
SYMBOL nmos 176 144 R0
SYMATTR InstName M1
SYMATTR Value Si7336ADP
SYMATTR Prefix ""
TEXT 80 448 Left 2 !.params L1=L1 L2=L2 C1=C1 Ci=Ci Co=Co Cd=Cd Rd=Rd
TEXT 88 512 Left 2 !K1 L1 L2 0.98
TEXT 496 -24 Left 2 ;diode we're using: \nSBRD10200TR
TEXT -648 512 Left 2 ;directive telling LTspice that L1 and L2 are inductively linked:
